gldcore/autotest/test_opt_deltamode_transforms.glm
//Tests transforms in deltamode
//Focuses on player and schedule transforms
//Checks issue stated in #1323

clock {
	timezone "PST+8PDT";
	starttime '2001-08-01 12:00:00 PDT';
	stoptime '2001-08-01 12:01:05 PDT';
}

//Test schedule
schedule test_schedule {
	0 * * * * 1.0;
	1 * * * * 2.0;
}

//#set pauseatexit=1
#set profiler=1
#set double_format=%+.12lg
#set complex_format=%+.12lg%+.12lg%c
#set complex_output_format=RECT

module tape;
module assert;
module powerflow {
	enable_subsecond_models true;
	deltamode_timestep 50 ms;
	solver_method NR;
	all_powerflow_delta true;
}

class player
{
	double value;
}

object line_configuration {
	z11 1.1349574926666666+1.200063532333333j;
	z12 0.2481072636666666+0.47157912833333315j;
	z13 0.24810726366666663+0.4715791283333332j;
	z21 0.24810726366666652+0.4715791283333331j;
	z22 1.1349574926666666+1.2000635323333333j;
	z23 0.24810726366666658+0.4715791283333332j;
	z31 0.24810726366666636+0.4715791283333331j;
	z32 0.2481072636666667+0.47157912833333326j;
	z33 1.1349574926666666+1.2000635323333333j;
	name olcABCN;
}

object player {
	name player_ref;
	flags DELTAMODE;
	file "../data_deltamode_transform.csv";
}

object meter {
	name subtation_bus;
	phases "ABCN";
	bustype SWING;
	nominal_voltage 7200.0;
}

object overhead_line  {
	phases "ABCN";
	name intermed_line;
	from subtation_bus;
	to feeder_head;
	length 100;
	configuration olcABCN;
}

object meter {
	name feeder_head;
	nominal_voltage 7200;
	phases ABCN;
}

object overhead_line  {
	phases "ABCN";
	name next_intermed_line;
	from feeder_head;
	to load_connection;
	length 100;
	configuration olcABCN;
}

object load {
	name load_connection;
	nominal_voltage 7200;
	phases ABCN;
	constant_power_AN 2400.0+1200.0j;
	constant_power_BN 3400.0+1100.0j;
	constant_power_CN_real player_ref.value*500.0+2000.0;
	constant_power_CN_reac test_schedule*400.0+400.0;
	object recorder {
		parent load_connection;
		flags DELTAMODE;
		property constant_power_CN;
		interval 1;
		file power_value_out.csv;
	};
	object complex_assert {
		parent load_connection;
		flags DELTAMODE;
		target constant_power_CN;
		within 0.1;
		object player {
			flags DELTAMODE;
			property value;
			file "../data_deltamode_transform_assertvals.csv";
		};
	};
}
